[TITLE]
;;Project Title/Notes
Stable model without LIDs. Also stable for 100-yr SCS Type 2 Storm.

[OPTIONS]
;;Option             Value
FLOW_UNITS           CFS
INFILTRATION         GREEN_AMPT
FLOW_ROUTING         DYNWAVE
LINK_OFFSETS         DEPTH
MIN_SLOPE            0
ALLOW_PONDING        YES
SKIP_STEADY_STATE    NO

START_DATE           12/20/2020
START_TIME           00:00:00
REPORT_START_DATE    01/01/2021
REPORT_START_TIME    00:00:00
END_DATE             12/31/2022
END_TIME             00:00:00
SWEEP_START          01/01
SWEEP_END            12/31
DRY_DAYS             1
REPORT_STEP          01:00:00
WET_STEP             01:00:00
DRY_STEP             01:00:00
ROUTING_STEP         1:00:00 
RULE_STEP            00:00:00

INERTIAL_DAMPING     FULL
NORMAL_FLOW_LIMITED  FROUDE
FORCE_MAIN_EQUATION  H-W
VARIABLE_STEP        0.75
LENGTHENING_STEP     0
MIN_SURFAREA         100
MAX_TRIALS           8
HEAD_TOLERANCE       0.005
SYS_FLOW_TOL         5
LAT_FLOW_TOL         5
MINIMUM_STEP         0.5
THREADS              4

[EVAPORATION]
;;Data Source    Parameters
;;-------------- ----------------
CONSTANT         0
DRY_ONLY         NO

[RAINGAGES]
;;Name           Format    Interval SCF      Source    
;;-------------- --------- ------ ------ ----------
Raingage1        CUMULATIVE 0:15     1.0      TIMESERIES 9Apr2021Event   
Raingage2        INTENSITY 1:00     1.0      TIMESERIES 8Aug2021        
Raingage         INTENSITY 1:00     1.0      TIMESERIES 2021-2022_Rain  
SCS_Type_II_3.04in INTENSITY 0:15     1.0      TIMESERIES SCS_Type_II_3.04in

[SUBCATCHMENTS]
;;Name           Rain Gage        Outlet           Area     %Imperv  Width    %Slope   CurbLen  SnowPack        
;;-------------- ---------------- ---------------- -------- -------- -------- -------- -------- ----------------
S-2              Raingage         1261             555      27       2065.119 6.561856 0                        
S-1              Raingage         1                1134     36       2796.45  14       0                        
S-4              Raingage         14               153      36       1325.536 10.16032 0                        
S-5              Raingage         1342             96       77       1110.621 2.823905 0                        
S-6              Raingage         1353             196      59       680.7566 8.04516  0                        
S-7              Raingage         2                597      47       4702.775 34.11387 0                        
S-9              Raingage         19               300      16       2090.178 27.67888 0                        
S-8              Raingage         J5               260      63       1740     9        0                        
S-3              Raingage         1319             215      48       2848     4.3      0                        

[SUBAREAS]
;;Subcatchment   N-Imperv   N-Perv     S-Imperv   S-Perv     PctZero    RouteTo    PctRouted 
;;-------------- ---------- ---------- ---------- ---------- ---------- ---------- ----------
S-2              0.1501792  0.3905308  0.2073811  0.2496219  25         OUTLET    
S-1              0.2665002  0.7427838  0.3859672  0.119      25         OUTLET    
S-4              0.5981472  0.4083144  0.2351267  0.1288855  25         OUTLET    
S-5              0.2185304  0.5028052  0.2007016  0.5846896  25         OUTLET    
S-6              0.5399304  0.6404848  0.2145573  0.2580195  25         OUTLET    
S-7              0.7053508  0.1265795  0.1210102  0.7083802  25         OUTLET    
S-9              0.4424132  0.1911205  0.3273219  0.1081042  25         OUTLET    
S-8              0.086      0.18       0.11       0.11       25         OUTLET    
S-3              0.2        0.3        0.2        0.2        25         OUTLET    

[INFILTRATION]
;;Subcatchment   Param1     Param2     Param3     Param4     Param5    
;;-------------- ---------- ---------- ---------- ---------- ----------
S-2              5          1.2        .4         7          0         
S-1              5          1.2        .4         7          0         
S-4              5          1.2        0.4        7          0         
S-5              5          1.2        .4         7          0         
S-6              5          1.2        .4         7          0         
S-7              5          1.2        0.4        7          0         
S-9              5          1.2        0.4        7          0         
S-8              5          1.2        0.4        7          0         
S-3              5          1.2        0.4        7          0         

[LID_CONTROLS]
;;Name           Type/Layer Parameters
;;-------------- ---------- ----------
GreenRoof        GR
GreenRoof        SURFACE    6          0.1        0.1        1.0        5         
GreenRoof        SOIL       6          0.6        0.2        0.1        0.5        10.0       3.5       
GreenRoof        DRAINMAT   1.5        0.5        0.1       

Micro-Bioretention BC
Micro-Bioretention SURFACE    6          0.05       0          0          5         
Micro-Bioretention SOIL       36         0.2        0.12       0.05       12         40         10        
Micro-Bioretention STORAGE    21         0.4        0.5        0         
Micro-Bioretention DRAIN      1          0          0          6          0          0                    
Micro-Bioretention REMOVALS   TN1        40         TN2        40         TN3        40         TN4        40        
Micro-Bioretention REMOVALS   TP1        25         TP2        25         TP3        25         TP4        25        
Micro-Bioretention REMOVALS   TN5        40         TP5        25        

[LID_USAGE]
;;Subcatchment   LID Process      Number  Area       Width      InitSat    FromImp    ToPerv     RptFile                  DrainTo          FromPerv  
;;-------------- ---------------- ------- ---------- ---------- ---------- ---------- ---------- ------------------------ ---------------- ----------
S-2              GreenRoof        1       0          287        0          0          0          *                        *                0               
S-2              Micro-Bioretention 0       1076.4     33         0          0          0          *                        *                0               
S-1              GreenRoof        1       0          825        0          0          0          *                        *                0               
S-1              Micro-Bioretention 0       1076.4     33         0          0          0          *                        *                0               
S-4              GreenRoof        1       0          287        0          0          0          *                        *                0               
S-4              Micro-Bioretention 0       1076.4     33         0          50         0          *                        *                50              
S-5              GreenRoof        1       0          344        0          0          0          *                        *                0               
S-5              Micro-Bioretention 0       1076.4     33         0          50         0          *                        *                50              
S-6              GreenRoof        1       0          904        0          0          0          *                        *                0               
S-6              Micro-Bioretention 0       1076.4     33         0          50         0          *                        *                50              
S-7              GreenRoof        1       0          519        0          0          0          *                        *                0               
S-7              Micro-Bioretention 0       1076.4     33         0          0          0          *                        *                0               
S-9              Micro-Bioretention 0       1076.4     33         0          0          0          *                        *                0               
S-8              GreenRoof        1       0          344        0          0          0          *                        *                0               
S-8              Micro-Bioretention 1       1076.4     33         0          0          0          *                        *                0               
S-3              GreenRoof        1       0          287        0          0          0          *                        *                0               
S-3              Micro-Bioretention 0       1076.4     33         0          0          0          *                        *                0               

[AQUIFERS]
;;Name           Por    WP     FC     Ksat   Kslope Tslope ETu    ETs    Seep   Ebot   Egw    Umc    ETupat 
;;-------------- ------ ------ ------ ------ ------ ------ ------ ------ ------ ------ ------ ------ ------
MC               0.4    0.15   0.2    0.01   15     15     0.35   5      0.0009 377    378    0.30         
MC_Alt1          0.6    0.15   0.2    0.1    100.0  100.0  5      14.0   0.0009 400    413    0.30         

[GROUNDWATER]
;;Subcatchment   Aquifer          Node             Esurf  A1     B1     A2     B2     A3     Dsw    Egwt   Ebot   Wgr    Umc   
;;-------------- ---------------- ---------------- ------ ------ ------ ------ ------ ------ ------ ------ ------ ------ ------
S-2              MC               1261             444    1      2      0      0      0      0      442    439    442    *     
S-1              MC               1292             417    1      2      0      0      0      0      415    412    415    *     
S-4              MC               1295             414    1      2      0      0      0      0      412    409    412    *     
S-5              MC               1342             417    1      2      0      0      0      0      415    412    415    *     
S-6              MC               1353             412    1      2      0      0      0      0      410    407    410    *     
S-7              MC               1363             389    1      2      0      0      0      0      387    382    387    *     
S-9              MC               1375             378.5  1      2      0      0      0      0      372.5  376.5  *      *     
S-8              MC               J5               428.5  1      2      0      0      0      0      426.5  421.22 426.4  *     
S-3              MC               1319             417    1      2      0      0      0      0      415    412    415    *     

[JUNCTIONS]
;;Name           Elevation  MaxDepth   InitDepth  SurDepth   Aponded   
;;-------------- ---------- ---------- ---------- ---------- ----------
1261             444        9          0          0          43560     
1263             435        6          0          0          43560     
1271             429        9          0          0          43560     
1273             427        11         0          0          43560     
1275             425        9          0          0          43560     
1278             421        11         0          0          43560     
1279             420.5      10         0          0          43560     
1280             419.85     10.78      0          0          43560     
1283             418.7      10.3       0          0          43560     
1292             416        9          0          0          43560     
1295             414        13         0          0          43560     
1296             412        15         0          0          43560     
1319             420        6          0          0          43560     
1320             409        13         0          0          43560     
1321             407        13         2          0          43560     
1324             406        12         0          0          43560     
1330             402.56     10.66      0          0          43560     
1339             399        9          0          0          43560     
1342             417        23         0          0          43560     
1344             414.3      22.7       0          0          43560     
1347             402        8          0          0          43560     
1348             396        14         0          0          43560     
1353             412        24         0          0          43560     
1355             404        27         0          0          43560     
1358             392.5      35.5       0          0          43560     
1360             393        12         0          0          43560     
1363             388        12         0          0          43560     
1375             378.44     12.15      0.3        0          43560     
1377             376.32     12.3       0          0          43560     
1381             372.29     9.71       0          0          43560     
1391             370        14         0          0          43560     
J16_1            408.316    0          0          0          0         
14               415        9          0          0          0         
19               379.44     0          0          0          0         
1                417        9          0          0          0         
2                0          0          0          0          0         

[OUTFALLS]
;;Name           Elevation  Type       Stage Data       Gated    Route To        
;;-------------- ---------- ---------- ---------------- -------- ----------------
1405             369        FREE                        NO                       

[STORAGE]
;;Name           Elev.    MaxDepth   InitDepth  Shape      Curve Name/Params            N/A      Fevap    Psi      Ksat     IMD     
;;-------------- -------- ---------- ----------- ---------- ---------------------------- -------- --------          -------- --------
1346             402.79   9.21       0          TABULAR    1346_Curve                   0        0       
J5               426.023  2.6        1          TABULAR    BMP_3                        0        0       

[CONDUITS]
;;Name           From Node        To Node          Length     Roughness  InOffset   OutOffset  InitFlow   MaxFlow   
;;-------------- ---------------- ---------------- ---------- ---------- ---------- ---------- ---------- ----------
42611            1261             1263             370        0.0038     0          0          0          0         
42631            1263             1271             380        0.0038     0          0          0          0         
42711            1271             1273             277        0.0038     0          0          0          0         
42731            1273             1275             254        0.0012     0          0          0          0         
42732            1273             1275             254        0.0012     0          0          0          0         
42751            1275             1278             193        0.0038     0          0          0          0         
42781            1278             1279             88         0.0012     0          0          0          0         
42782            1278             1279             88         0.0012     0          0          0          0         
42791            1279             1280             141        0.0038     0          0          0          0         
42801            1280             1283             98         0.0012     0          0          0          0         
42802            1280             1283             98         0.0012     0          0          0          0         
42831            1283             1292             569        0.0008     0          0          0          0         
42921            1292             1295             999        0.0008     0          0          0          0         
42951            1295             1296             170        0.0012     0          0          0          0         
42952            1295             1296             170        0.0012     0          0          0          0         
42961            1296             1320             171        0.0046     0          0          0          0         
5000             1319             1320             676        0.0038     0          0          0          0         
43201            1320             1321             401        0.0046     0          0          0          0         
43211            1321             1324             127        0.0012     2          2          0          0         
43212            1321             1324             127        0.0012     2          2          0          0         
43213            1321             1324             127        0.0012     2          2          0          0         
43241            1324             1330             572        0.0008     0          0          0          0         
43301            1330             1339             669        0.0008     0          0          0          0         
43391            1339             1348             899        0.0008     0          0          0          0         
43421            1342             1344             150        0.0012     0          0          0          0         
43441            1344             1346             363        0.0012     0          2          0          0         
43461            1346             1347             69         0.0012     0          0          0          0         
15               1347             1348             93         0.0038     0          0          0          0         
43481            1348             1358             928        0.0008     0          0          0          0         
43531            1353             1355             454        0.0038     0          0          0          0         
17               1355             1358             338        0.0012     0          5          0          0         
43581            1358             1363             1134       0.0008     0          0          0          0         
43601            1360             1363             999        0.0008     0          0          0          0         
43631            1363             1375             1417       0.0054     0          0          0          0         
43751            1375             1377             119        0.0012     0.3        2.3        0          0         
43752            1375             1377             119        0.0012     0.3        2.3        0          0         
43753            1375             1377             119        0.0012     0.3        2.3        0          0         
43771            1377             1381             1081       0.0008     0          0          0          0         
43811            1381             1391             937        0.0008     0          0          0          0         
43911            1391             1405             243        0.0008     0          0          0          0         
C16_1            J16_1            1360             444.496    0.0008     0          0          0          0         
14               14               1295             300        0.0038     0          0          0          0         
19               19               1375             400        0.01       0          0          0          0         
NE_Cond          J16_1            J5               400        0.01       1          0          0          0         
1                1                1292             100        0.035      0          0          0          0         
2                2                1360             400        0.035      394.5      0          0          0         

[XSECTIONS]
;;Link           Shape        Geom1            Geom2      Geom3      Geom4      Barrels    Culvert   
;;-------------- ------------ ---------------- ---------- ---------- ---------- ---------- ----------
42611            TRAPEZOIDAL  6                4          2          2          1                    
42631            TRAPEZOIDAL  6                10.4       1.5        2          1                    
42711            TRAPEZOIDAL  9                10         1          1          1                    
42731            RECT_CLOSED  6                6          0          0          1                    
42732            RECT_CLOSED  6                6          0          0          1                    
42751            TRAPEZOIDAL  9                10         2          1          1                    
42781            RECT_CLOSED  6                8          0          0          1                    
42782            RECT_CLOSED  6                8          0          0          1                    
42791            TRAPEZOIDAL  10               24         1          1          1                    
42801            RECT_CLOSED  6                8          0          0          1                    
42802            RECT_CLOSED  6                8          0          0          1                    
42831            IRREGULAR    396_ChannelCurve 0          0          0          1                    
42921            IRREGULAR    399_ChannelCurve 0          0          0          1                    
42951            RECT_CLOSED  10               10         0          0          1                    
42952            RECT_CLOSED  10               10         0          0          1                    
42961            TRAPEZOIDAL  13               20         2          2          1                    
5000             TRAPEZOIDAL  6                10         1          3          1                    
43201            TRAPEZOIDAL  13               20         3          3          1                    
43211            RECT_CLOSED  10               10         0          0          1                    
43212            RECT_CLOSED  10               10         0          0          1                    
43213            RECT_CLOSED  10               10         0          0          1                    
43241            IRREGULAR    418_ChannelCurve 0          0          0          1                    
43301            IRREGULAR    421_ChannelCurve 0          0          0          1                    
43391            IRREGULAR    425_ChannelCurve 0          0          0          1                    
43421            CIRCULAR     4                0          0          0          1                    
43441            CIRCULAR     4                0          0          0          1                    
43461            CIRCULAR     5                0          0          0          1                    
15               TRAPEZOIDAL  8                4          2          2          1                    
43481            IRREGULAR    431_ChannelCurve 0          0          0          1                    
43531            TRAPEZOIDAL  24               20         2          2          1                    
17               CIRCULAR     4.5              0          0          0          1                    
43581            IRREGULAR    437_ChannelCurve 0          0          0          1                    
43601            IRREGULAR    438_ChannelCurve 0          0          0          1                    
43631            TRAPEZOIDAL  12               33         3          5          1                    
43751            RECT_CLOSED  10               10         0          0          1                    
43752            RECT_CLOSED  10               10         0          0          1                    
43753            RECT_CLOSED  10               10         0          0          1                    
43771            IRREGULAR    448_ChannelCurve 0          0          0          1                    
43811            IRREGULAR    449_ChannelCurve 0          0          0          1                    
43911            IRREGULAR    454_ChannelCurve 0          0          0          1                    
C16_1            IRREGULAR    16               0          0          0          1                    
14               PARABOLIC    5                5          0          0          1                    
19               CIRCULAR     1                0          0          0          1                    
NE_Cond          CIRCULAR     11               0          0          0          1                    
1                TRAPEZOIDAL  6                10         1          3          1                    
2                TRAPEZOIDAL  6                10         3          3          1                    

[TRANSECTS]
;;Transect Data in HEC-2 format
;
NC 0.01     0.01     0.01    
X1 16                170      50       79       0.0      0.0      0.0      0.0      0.0     
GR 415.109  0        415.109  2        415.062  3        415.062  4        415.019  5       
GR 415.019  7        414.89   8        414.89   9        415.109  9.855    415.109  10      
GR 414.543  11       414.543  12       412.979  13       412.979  15       411.68   16      
GR 411.68   17       410.377  18       410.377  20       408.461  21       408.461  22      
GR 407.556  23       407.556  25       407.062  26       407.062  27       407.107  28      
GR 407.107  30       406.954  31       406.954  32       406.778  33       406.778  35      
GR 406.669  36       406.669  37       406.633  38       406.633  40       406.557  41      
GR 406.557  42       406.694  43       406.694  45       406.649  46       406.649  47      
GR 406.676  48       406.676  50       406.472  51       406.543  52       406.068  53      
GR 406.068  55       405.694  56       405.694  57       404.791  58       404.791  60      
GR 403.592  61       403.592  62       403.486  63       403.486  65       403.404  66      
GR 403.404  67       403.316  68       403.316  70       403.746  71       403.746  72      
GR 404.689  73       404.689  75       405.978  76       405.978  78       406.966  79      
GR 406.966  80       407.585  81       407.585  83       408.432  84       408.432  85      
GR 409.068  86       409.068  88       410.595  89       410.595  90       411.257  91      
GR 411.257  93       411.899  94       411.997  94.909   411.997  95       412.126  96      
GR 412.126  98       412.528  99       412.528  100      412.688  101      412.688  103     
GR 412.538  104      412.538  105      412.337  106      412.337  108      412.441  109     
GR 412.441  110      412.329  111      412.329  113      412.332  114      412.332  115     
GR 412.402  116      412.402  118      412.457  119      412.457  120      412.418  121     
GR 412.418  123      412.447  124      412.447  125      412.456  126      412.456  128     
GR 412.435  129      412.435  130      412.496  131      412.496  133      412.41   134     
GR 412.41   135      412.462  136      412.522  137      412.522  138      412.393  139     
GR 412.393  140      412.162  141      412.162  143      411.862  144      411.862  145     
GR 411.638  146      411.638  148      411.602  149      411.602  151      411.164  152     
GR 411.164  153      411.172  154      411.172  156      411.352  157      411.383  158     
GR 411.512  159      411.512  161      411.661  162      411.661  163      411.744  164     
GR 411.744  166      411.984  167      411.984  168      412.024  169      412.024  171     
GR 412.1    172      412.1    173      412.233  174      412.233  176      412.255  177     
GR 412.255  178      412.431  179      412.431  181      412.446  182      412.446  183     
GR 412.806  184      412.806  186      412.828  187      412.828  188      412.899  189     
GR 412.899  191      412.931  192      412.931  193      413.487  194      413.487  196     
GR 413.775  197      413.775  198      413.887  199      414.053  200      414.053  201     
GR 414.167  202      414.167  203      414.318  204      414.318  206      414.397  207     
;
NC 0.01     0.01     0.01    
X1 19                422      401      425      0.0      0.0      0.0      0.0      0.0     
GR 478.848  0        478.848  2        477.77   3        477.77   5        477.276  6       
GR 476.809  7        476.809  8        476.33   9        476.33   10       475.559  11      
GR 475.559  12       475.06   13       475.06   14       474.787  15       473.971  16      
GR 473.971  18       472.604  19       472.604  21       471.875  22       471.49   23      
GR 471.49   24       470.646  25       470.646  26       469.68   27       469.68   28      
GR 469.165  29       469.165  30       468.029  31       467.389  32       467.389  34      
GR 466.335  35       466.335  37       465.94   38       465.131  39       465.131  40      
GR 464.519  41       464.519  42       463.976  43       463.385  44       463.385  46      
GR 462.524  47       461.938  48       461.938  50       461.776  51       460.725  52      
GR 460.725  53       460.19   54       460.19   55       459.588  56       458.796  57      
GR 458.796  59       458.044  60       458.044  62       457.389  63       456.897  64      
GR 456.897  66       456.334  67       455.975  68       455.975  69       455.723  70      
GR 455.723  71       454.712  72       454.032  73       454.032  75       453.125  76      
GR 453.125  78       452.615  79       451.881  80       451.881  82       451.649  83      
GR 451.165  84       451.165  85       450.609  86       450.609  87       450.054  88      
GR 449.403  89       449.403  91       448.441  92       448.441  94       447.938  95      
GR 447.349  96       447.349  97       446.971  98       446.971  99       446.606  100     